Version 4
SHEET 1 880 680
WIRE 288 -80 64 -80
WIRE 320 -80 288 -80
WIRE 464 -64 384 -64
WIRE 256 -32 144 -32
WIRE 320 -32 256 -32
WIRE 64 -16 64 -80
WIRE 64 80 64 64
WIRE 288 96 288 -80
WIRE 384 96 288 96
WIRE 528 96 448 96
WIRE 144 112 144 -32
WIRE 256 112 256 -32
WIRE 384 112 256 112
WIRE 144 208 144 192
FLAG 64 80 0
FLAG 144 208 0
FLAG 464 -64 Sum
IOPIN 464 -64 Out
FLAG 528 96 Carry
IOPIN 528 96 Out
SYMBOL voltage 64 -32 R0
WINDOW 3 -122 -83 Left 2
WINDOW 123 0 0 Left 0
WINDOW 39 0 0 Left 0
SYMATTR Value PULSE(0 5 0 5ns 5ns 40 80)
SYMATTR InstName V1
SYMBOL voltage 144 96 R0
WINDOW 123 0 0 Left 0
WINDOW 39 0 0 Left 0
SYMATTR InstName V2
SYMATTR Value PULSE(0 5 0 5ns 5ns 20 40)
SYMBOL Digital\\xor 368 -112 R0
SYMATTR InstName A1
SYMBOL Digital\\and 416 48 R0
SYMATTR InstName A2
TEXT -64 232 Left 2 !.tran 160
